2024_89_CemigReconfigurationCases/1_SEsCemig/LPTU01/LPTU01SegmentosMT.dss
new line.TR10571254 bus1=BMT134723962.2,bus2=BMT6831554B.2,Phases=1,Linecode=CAB202_3_1,Length=0.107394000,Units=km
new line.TR10571261 bus1=BMT6831554B.2,bus2=BMT134723969.2,Phases=1,Linecode=CAB202_3_1,Length=0.035355000,Units=km
new line.TR10571268 bus1=BMT134723969.2,bus2=BMT6831568B.2,Phases=1,Linecode=CAB202_3_1,Length=0.144084000,Units=km
new line.TR10571275 bus1=BMT6831568B.2,bus2=BMT134723976.2,Phases=1,Linecode=CAB202_3_1,Length=0.104048000,Units=km
new line.TR10571282 bus1=BMT134723969.2,bus2=BMT134723983.2,Phases=1,Linecode=CAB103_3_1,Length=0.076579000,Units=km
new line.TR10580417 bus1=BMT101531558.1,bus2=BMT101531565.1,Phases=1,Linecode=CAB202_3_1,Length=0.050109000,Units=km
new line.TR10580424 bus1=BMT101531565.1,bus2=BMT101531572.1,Phases=1,Linecode=CAB202_3_1,Length=0.059503000,Units=km
new line.TR10580438 bus1=BMT101531579.1,bus2=BMT101531586.1,Phases=1,Linecode=CAB202_3_1,Length=0.125446000,Units=km
new line.TR10580445 bus1=BMT101531586.1,bus2=BMT6841207B.1,Phases=1,Linecode=CAB202_3_1,Length=0.094677000,Units=km
new line.TR10580452 bus1=BMT6841207B.1,bus2=BMT101531593.1,Phases=1,Linecode=CAB202_3_1,Length=0.087354000,Units=km
new line.TR10581075 bus1=BMT166474238.3,bus2=BMT6841592B.3,Phases=1,Linecode=CAB202_3_1,Length=0.065093000,Units=km
new line.TR10581082 bus1=BMT6841592B.3,bus2=BMT6841599B.3,Phases=1,Linecode=CAB202_3_1,Length=0.073273000,Units=km
new line.TR10581089 bus1=BMT6841599B.3,bus2=BMT166474241.3,Phases=1,Linecode=CAB202_3_1,Length=0.052364000,Units=km
new line.TR10590308 bus1=BMT165930738.3,bus2=BMT6851868B.3,Phases=1,Linecode=CAB202_3_1,Length=0.078273000,Units=km
new line.TR10590315 bus1=BMT6851868B.3,bus2=BMT165930739.3,Phases=1,Linecode=CAB202_3_1,Length=0.151265000,Units=km
new line.TR10590322 bus1=BMT165930739.3,bus2=BMT165930740.3,Phases=1,Linecode=CAB202_3_1,Length=0.148656000,Units=km
new line.TR10590742 bus1=BMT170476069.3,bus2=BMT6852190B.3,Phases=1,Linecode=CAB202_3_1,Length=0.014428000,Units=km
new line.TR10590749 bus1=BMT6852190B.3,bus2=BMT170476073.3,Phases=1,Linecode=CAB202_3_1,Length=0.333710000,Units=km
new line.TR10600241 bus1=BMT101525643.1,bus2=BMT6863453B.1,Phases=1,Linecode=CAB202_3_1,Length=0.072477000,Units=km
new line.TR10600248 bus1=BMT6863453B.1,bus2=BMT6863460B.1,Phases=1,Linecode=CAB202_3_1,Length=0.083223000,Units=km
new line.TR10600255 bus1=BMT6863460B.1,bus2=BMT6863467B.1,Phases=1,Linecode=CAB202_3_1,Length=0.084790000,Units=km
new line.TR10600262 bus1=BMT6863467B.1,bus2=BMT6863474B.1,Phases=1,Linecode=CAB202_3_1,Length=0.110612000,Units=km
new line.TR10600269 bus1=BMT6863474B.1,bus2=BMT6863481B.1,Phases=1,Linecode=CAB202_3_1,Length=0.107975000,Units=km
new line.TR10600276 bus1=BMT6863481B.1,bus2=BMT6863488B.1,Phases=1,Linecode=CAB202_3_1,Length=0.075088000,Units=km
new line.TR10600283 bus1=BMT6863488B.1,bus2=BMT6863495B.1,Phases=1,Linecode=CAB202_3_1,Length=0.134351000,Units=km
new line.TR10600290 bus1=BMT6863495B.1,bus2=BMT101525650.1,Phases=1,Linecode=CAB202_3_1,Length=0.087313000,Units=km
new line.TR10600304 bus1=BMT101525650.1,bus2=BMT101525657.1,Phases=1,Linecode=CAB103_3_1,Length=0.072034000,Units=km
new line.TR10600479 bus1=BMT101525650.1,bus2=BMT101525664.1,Phases=1,Linecode=CAB202_3_1,Length=0.111867000,Units=km
new line.TR10602215 bus1=BMT163546195.2,bus2=BMT163546197.2,Phases=1,Linecode=CAB202_3_1,Length=0.139571000,Units=km
new line.TR10603258 bus1=BMT169413062.2,bus2=BMT169413063.2,Phases=1,Linecode=CAB103_3_1,Length=0.045360000,Units=km
new line.TR10605155 bus1=BMT136015784.3,bus2=BMT165566641.3,Phases=1,Linecode=CAB202_3_1,Length=0.081374000,Units=km
new line.TR10606933 bus1=BMT161323043.3,bus2=BMT6869907B.3,Phases=1,Linecode=CAB202_3_1,Length=0.199022000,Units=km
new line.TR10606940 bus1=BMT6869907B.3,bus2=BMT6869914B.3,Phases=1,Linecode=CAB202_3_1,Length=0.092754000,Units=km
new line.TR10606947 bus1=BMT6869914B.3,bus2=BMT161323045.3,Phases=1,Linecode=CAB202_3_1,Length=0.113094000,Units=km
new line.TR10608536 bus1=BMT156559212.1,bus2=BMT6871503B.1,Phases=1,Linecode=CAB202_3_1,Length=0.032214000,Units=km
new line.TR10608543 bus1=BMT6871503B.1,bus2=BMT6871510B.1,Phases=1,Linecode=CAB202_3_1,Length=0.164655000,Units=km
new line.TR10608550 bus1=BMT6871510B.1,bus2=BMT6871517B.1,Phases=1,Linecode=CAB202_3_1,Length=0.165374000,Units=km
new line.TR10608557 bus1=BMT6871517B.1,bus2=BMT6871524B.1,Phases=1,Linecode=CAB202_3_1,Length=0.072524000,Units=km
new line.TR10608564 bus1=BMT6871524B.1,bus2=BMT6871531B.1,Phases=1,Linecode=CAB202_3_1,Length=0.131413000,Units=km
new line.TR10608571 bus1=BMT6871531B.1,bus2=BMT6871538B.1,Phases=1,Linecode=CAB202_3_1,Length=0.097159000,Units=km
new line.TR10608578 bus1=BMT6871538B.1,bus2=BMT6871545B.1,Phases=1,Linecode=CAB202_3_1,Length=0.094955000,Units=km
new line.TR10608585 bus1=BMT6871545B.1,bus2=BMT6871552B.1,Phases=1,Linecode=CAB202_3_1,Length=0.141786000,Units=km
new line.TR10608592 bus1=BMT6871552B.1,bus2=BMT6871559B.1,Phases=1,Linecode=CAB202_3_1,Length=0.111866000,Units=km
new line.TR10608599 bus1=BMT6871559B.1,bus2=BMT6871566B.1,Phases=1,Linecode=CAB202_3_1,Length=0.123125000,Units=km
new line.TR10608606 bus1=BMT6871566B.1,bus2=BMT6871573B.1,Phases=1,Linecode=CAB202_3_1,Length=0.122146000,Units=km
new line.TR10608613 bus1=BMT6871573B.1,bus2=BMT6871580B.1,Phases=1,Linecode=CAB202_3_1,Length=0.141786000,Units=km
new line.TR10608620 bus1=BMT6871580B.1,bus2=BMT6871587B.1,Phases=1,Linecode=CAB202_3_1,Length=0.106832000,Units=km
new line.TR10608627 bus1=BMT6871587B.1,bus2=BMT6871594B.1,Phases=1,Linecode=CAB202_3_1,Length=0.094188000,Units=km
new line.TR10608634 bus1=BMT6871594B.1,bus2=BMT6871601B.1,Phases=1,Linecode=CAB202_3_1,Length=0.096932000,Units=km
new line.TR10608641 bus1=BMT6871601B.1,bus2=BMT6871608B.1,Phases=1,Linecode=CAB202_3_1,Length=0.169819000,Units=km
new line.TR10608648 bus1=BMT6871608B.1,bus2=BMT6871615B.1,Phases=1,Linecode=CAB202_3_1,Length=0.106870000,Units=km
new line.TR10608655 bus1=BMT6871615B.1,bus2=BMT6871622B.1,Phases=1,Linecode=CAB202_3_1,Length=0.132369000,Units=km
new line.TR10608662 bus1=BMT6871622B.1,bus2=BMT156559213.1,Phases=1,Linecode=CAB202_3_1,Length=0.101870000,Units=km
new line.TR10608669 bus1=BMT156559213.1,bus2=BMT6871636B.1,Phases=1,Linecode=CAB202_3_1,Length=0.132991000,Units=km
new line.TR10608676 bus1=BMT6871636B.1,bus2=BMT6871643B.1,Phases=1,Linecode=CAB202_3_1,Length=0.165043000,Units=km
new line.TR10608683 bus1=BMT6871643B.1,bus2=BMT6871650B.1,Phases=1,Linecode=CAB202_3_1,Length=0.108265000,Units=km
new line.TR10226070 bus1=BMT171911573.3,bus2=BMT6400620B.3,Phases=1,Linecode=CABA06_3_1,Length=0.046547000,Units=km
new line.TR10226077 bus1=BMT6400620B.3,bus2=BMT101522948.3,Phases=1,Linecode=CABA06_3_1,Length=0.053359000,Units=km
new line.TR10238943 bus1=BMT6421879B.1,bus2=BMT101528527.1,Phases=1,Linecode=CAB202_3_1,Length=0.085736000,Units=km
new line.TR10252320 bus1=BMT6445273B.1,bus2=BMT6445280B.1,Phases=1,Linecode=CAB202_3_1,Length=0.115617000,Units=km
new line.TR10252327 bus1=BMT6445280B.1,bus2=BMT6445301B.1,Phases=1,Linecode=CAB202_3_1,Length=0.202277000,Units=km
new line.TR10252341 bus1=BMT6445301B.1,bus2=BMT6445399B.1,Phases=1,Linecode=CAB202_3_1,Length=0.168317000,Units=km
new line.TR10252355 bus1=BMT6445315B.1,bus2=BMT6445448B.1,Phases=1,Linecode=CAB202_3_1,Length=0.073438000,Units=km
new line.TR10252397 bus1=BMT6445343B.1,bus2=BMT6445315B.1,Phases=1,Linecode=CAB202_3_1,Length=0.077502000,Units=km
new line.TR10252425 bus1=BMT6445364B.1,bus2=BMT6445343B.1,Phases=1,Linecode=CAB202_3_1,Length=0.128084000,Units=km
new line.TR10252460 bus1=BMT6445399B.1,bus2=BMT6445364B.1,Phases=1,Linecode=CAB202_3_1,Length=0.103910000,Units=km
new line.TR10252467 bus1=BMT6445427B.1,bus2=BMT6445490B.1,Phases=1,Linecode=CAB202_3_1,Length=0.229218000,Units=km
new line.TR10252495 bus1=BMT6445448B.1,bus2=BMT6445427B.1,Phases=1,Linecode=CAB202_3_1,Length=0.140089000,Units=km
new line.TR10252544 bus1=BMT6445483B.1,bus2=BMT136029140.1,Phases=1,Linecode=CAB202_3_1,Length=0.051566000,Units=km
new line.TR10252551 bus1=BMT6445490B.1,bus2=BMT6445483B.1,Phases=1,Linecode=CAB202_3_1,Length=0.095807000,Units=km
new line.TR10256520 bus1=BMT6451265B.1.2.3,bus2=BMT3810376B.1.2.3,Phases=3,Linecode=CAB103_3_3,Length=0.029011000,Units=km
new line.TR10628437 bus1=BMT1440218B.1.2.3,bus2=BMT6890942B.1.2.3,Phases=3,Linecode=CAB102_3_3,Length=0.035790000,Units=km
new line.TR10628444 bus1=BMT6890942B.1.2.3,bus2=BMT172413449.1.2.3,Phases=3,Linecode=CAB102_3_3,Length=0.040264000,Units=km
new line.TR10628458 bus1=BMT1440225B.1.2.3,bus2=BMT6890949B.1.2.3,Phases=3,Linecode=CAB102_3_3,Length=0.039372000,Units=km
new line.TR10628465 bus1=BMT6890949B.1.2.3,bus2=BMT1440218B.1.2.3,Phases=3,Linecode=CAB102_3_3,Length=0.038485000,Units=km
new line.TR10629564 bus1=BMT101531271.1.2.3,bus2=BMT101531278.1.2.3,Phases=3,Linecode=CAB103_3_3,Length=0.069919000,Units=km
new line.TR10629571 bus1=BMT101531285.1.2.3,bus2=BMT101531292.1.2.3,Phases=3,Linecode=CAB103_3_3,Length=0.020008000,Units=km
new line.TR10632217 bus1=BMT161346345.3,bus2=BMT161346366.3,Phases=1,Linecode=CAB103_3_1,Length=0.080186000,Units=km
new line.TR10640589 bus1=BMT170278414.1,bus2=BMT6902135B.1,Phases=1,Linecode=CAB202_3_1,Length=0.076088000,Units=km
new line.TR10640596 bus1=BMT6902135B.1,bus2=BMT6902163B.1,Phases=1,Linecode=CAB202_3_1,Length=0.228121000,Units=km
new line.TR10640603 bus1=BMT6902163B.1,bus2=BMT6902177B.1,Phases=1,Linecode=CAB202_3_1,Length=0.080554000,Units=km
new line.TR10640610 bus1=BMT6902177B.1,bus2=BMT6902198B.1,Phases=1,Linecode=CAB202_3_1,Length=0.075215000,Units=km
new line.TR10640631 bus1=BMT6902198B.1,bus2=BMT170278415.1,Phases=1,Linecode=CAB202_3_1,Length=0.108826000,Units=km
new line.TR10640715 bus1=BMT170278415.1,bus2=BMT170278416.1,Phases=1,Linecode=CAB202_3_1,Length=0.093331000,Units=km
new line.TR10641401 bus1=BMT168840967.2,bus2=BMT168840970.2,Phases=1,Linecode=CAB103_3_1,Length=0.081916000,Units=km
new line.TR10643809 bus1=BMT171604502.3,bus2=BMT6905663B.3,Phases=1,Linecode=CAB202_3_1,Length=0.055600000,Units=km
new line.TR10643816 bus1=BMT6905663B.3,bus2=BMT171604505.3,Phases=1,Linecode=CAB202_3_1,Length=0.058443000,Units=km
new line.TR10643830 bus1=BMT171604505.3,bus2=BMT6905670B.3,Phases=1,Linecode=CAB202_3_1,Length=0.118915000,Units=km
new line.TR10643837 bus1=BMT6905670B.3,bus2=BMT171604508.3,Phases=1,Linecode=CAB202_3_1,Length=0.150898000,Units=km
new line.TR10650487 bus1=BMT171379509.1,bus2=BMT171379512.1,Phases=1,Linecode=CAB202_3_1,Length=0.261421000,Units=km
new line.TR10655100 bus1=BMT171861986.1,bus2=BMT6917927B.1,Phases=1,Linecode=CAB202_3_1,Length=0.023440000,Units=km
new line.TR10655107 bus1=BMT6917927B.1,bus2=BMT6917934B.1,Phases=1,Linecode=CAB202_3_1,Length=0.076717000,Units=km
new line.TR10655114 bus1=BMT6917934B.1,bus2=BMT171861988.1,Phases=1,Linecode=CAB202_3_1,Length=0.126421000,Units=km
new line.TR10655121 bus1=BMT171861988.1,bus2=BMT6917948B.1,Phases=1,Linecode=CAB202_3_1,Length=0.126654000,Units=km
new line.TR10655128 bus1=BMT6917948B.1,bus2=BMT6917955B.1,Phases=1,Linecode=CAB202_3_1,Length=0.148815000,Units=km
new line.TR10655135 bus1=BMT6917955B.1,bus2=BMT6917962B.1,Phases=1,Linecode=CAB202_3_1,Length=0.113930000,Units=km
new line.TR10655142 bus1=BMT6917962B.1,bus2=BMT6917969B.1,Phases=1,Linecode=CAB202_3_1,Length=0.145056000,Units=km
new line.TR10655149 bus1=BMT6917969B.1,bus2=BMT6917976B.1,Phases=1,Linecode=CAB202_3_1,Length=0.128463000,Units=km
new line.TR10655156 bus1=BMT6917976B.1,bus2=BMT171861989.1,Phases=1,Linecode=CAB202_3_1,Length=0.270379000,Units=km
new line.TR10658068 bus1=BMT157763568.1,bus2=BMT6920839B.1,Phases=1,Linecode=CAB202_3_1,Length=0.119250000,Units=km
new line.TR10658075 bus1=BMT6920839B.1,bus2=BMT157763569.1,Phases=1,Linecode=CAB202_3_1,Length=0.238638000,Units=km
new line.TR10658082 bus1=BMT157763569.1,bus2=BMT157763570.1,Phases=1,Linecode=CAB103_3_1,Length=0.073580000,Units=km
new line.TR11002692 bus1=BMT136015987.2,bus2=BMT7235321B.2,Phases=1,Linecode=CAB202_3_1,Length=0.108506000,Units=km
new line.TR11002720 bus1=BMT7235321B.2,bus2=BMT7235328B.2,Phases=1,Linecode=CAB202_3_1,Length=0.042217000,Units=km
new line.TR11002727 bus1=BMT7235328B.2,bus2=BMT7235335B.2,Phases=1,Linecode=CAB202_3_1,Length=0.159107000,Units=km
new line.TR11002734 bus1=BMT7235335B.2,bus2=BMT7235342B.2,Phases=1,Linecode=CAB202_3_1,Length=0.364318000,Units=km
new line.TR11002741 bus1=BMT7235342B.2,bus2=BMT7235349B.2,Phases=1,Linecode=CAB202_3_1,Length=0.113200000,Units=km
new line.TR11002748 bus1=BMT7235349B.2,bus2=BMT136015994.2,Phases=1,Linecode=CAB202_3_1,Length=0.127451000,Units=km
new line.TR11004904 bus1=BMT163546160.2,bus2=BMT136020712.2,Phases=1,Linecode=CAB202_3_1,Length=0.039067000,Units=km
new line.TR11004911 bus1=BMT163546161.2,bus2=BMT136020726.2,Phases=1,Linecode=CAB202_3_1,Length=0.040066000,Units=km
new line.TR11009237 bus1=BMT101528737.1,bus2=BMT7240354B.1,Phases=1,Linecode=CAB103_3_1,Length=0.039978000,Units=km
new line.TR11009244 bus1=BMT7240354B.1,bus2=BMT101528744.1,Phases=1,Linecode=CAB103_3_1,Length=0.055627000,Units=km
new line.TR10410947 bus1=BMT165757320.1.2.3,bus2=BMT2288240B.1.2.3,Phases=3,Linecode=CABA06_3_3,Length=0.036152000,Units=km
new line.TR10411059 bus1=BMT2288240B.1.2.3,bus2=BMT2288247B.1.2.3,Phases=3,Linecode=CABA06_3_3,Length=0.036152000,Units=km
new line.TR10411115 bus1=BMT2288247B.1.2.3,bus2=BMT2288254B.1.2.3,Phases=3,Linecode=CABA06_3_3,Length=0.035070000,Units=km
new line.TR10422833 bus1=BMT2288254B.1.2.3,bus2=BMT2288261B.1.2.3,Phases=3,Linecode=CABA06_3_3,Length=0.038224000,Units=km
new line.TR10422868 bus1=BMT2288261B.1.2.3,bus2=BMT6681383B.1.2.3,Phases=3,Linecode=CABA06_3_3,Length=0.035860000,Units=km
new line.TR10422889 bus1=BMT6681383B.1.2.3,bus2=BMT165757321.1.2.3,Phases=3,Linecode=CABA06_3_3,Length=0.036249000,Units=km
new line.TR10425801 bus1=BMT136015945.2,bus2=BMT6683959B.2,Phases=1,Linecode=CAB202_3_1,Length=0.092164000,Units=km
new line.TR10426018 bus1=BMT6683959B.2,bus2=BMT6684001B.2,Phases=1,Linecode=CAB202_3_1,Length=0.078323000,Units=km
new line.TR10426025 bus1=BMT6684001B.2,bus2=BMT6684036B.2,Phases=1,Linecode=CAB202_3_1,Length=0.080559000,Units=km
new line.TR10426032 bus1=BMT6684036B.2,bus2=BMT6684050B.2,Phases=1,Linecode=CAB202_3_1,Length=0.070261000,Units=km
new line.TR10426039 bus1=BMT6684050B.2,bus2=BMT6684127B.2,Phases=1,Linecode=CAB202_3_1,Length=0.079678000,Units=km
new line.TR10426046 bus1=BMT6684127B.2,bus2=BMT6684148B.2,Phases=1,Linecode=CAB202_3_1,Length=0.060437000,Units=km
new line.TR10426053 bus1=BMT6684148B.2,bus2=BMT6684162B.2,Phases=1,Linecode=CAB202_3_1,Length=0.079678000,Units=km
new line.TR10426060 bus1=BMT6684162B.2,bus2=BMT6684386B.2,Phases=1,Linecode=CAB202_3_1,Length=0.069379000,Units=km
new line.TR10426186 bus1=BMT6684386B.2,bus2=BMT6683231B.2,Phases=1,Linecode=CAB202_3_1,Length=0.081522000,Units=km
new line.TR10426193 bus1=BMT6683231B.2,bus2=BMT6683336B.2,Phases=1,Linecode=CAB202_3_1,Length=0.063624000,Units=km
new line.TR10426200 bus1=BMT6683336B.2,bus2=BMT6683357B.2,Phases=1,Linecode=CAB202_3_1,Length=0.067226000,Units=km
new line.TR10426207 bus1=BMT6683357B.2,bus2=BMT6683371B.2,Phases=1,Linecode=CAB202_3_1,Length=0.071426000,Units=km
new line.TR10426214 bus1=BMT6683371B.2,bus2=BMT6683392B.2,Phases=1,Linecode=CAB202_3_1,Length=0.201676000,Units=km
new line.TR10426242 bus1=BMT6683392B.2,bus2=BMT6683427B.2,Phases=1,Linecode=CAB202_3_1,Length=0.080029000,Units=km
new line.TR10426249 bus1=BMT6683427B.2,bus2=BMT6683483B.2,Phases=1,Linecode=CAB202_3_1,Length=0.070240000,Units=km
new line.TR10426256 bus1=BMT6683483B.2,bus2=BMT6683861B.2,Phases=1,Linecode=CAB202_3_1,Length=0.062824000,Units=km
new line.TR10426263 bus1=BMT6683861B.2,bus2=BMT136015952.2,Phases=1,Linecode=CAB202_3_1,Length=0.053620000,Units=km
new line.TR10426270 bus1=BMT136015952.2,bus2=BMT6683287B.2,Phases=1,Linecode=CAB202_3_1,Length=0.050268000,Units=km
new line.TR10426277 bus1=BMT6683287B.2,bus2=BMT136015959.2,Phases=1,Linecode=CAB202_3_1,Length=0.061423000,Units=km
new line.TR10427810 bus1=BMT136015966.2,bus2=BMT6685779B.2,Phases=1,Linecode=CAB202_3_1,Length=0.053778000,Units=km
new line.TR10427845 bus1=BMT6685779B.2,bus2=BMT6685807B.2,Phases=1,Linecode=CAB202_3_1,Length=0.188166000,Units=km
new line.TR10427852 bus1=BMT6685807B.2,bus2=BMT6685821B.2,Phases=1,Linecode=CAB202_3_1,Length=0.057892000,Units=km
new line.TR10427859 bus1=BMT6685821B.2,bus2=BMT6685849B.2,Phases=1,Linecode=CAB202_3_1,Length=0.097708000,Units=km
new line.TR10427866 bus1=BMT6685849B.2,bus2=BMT6685870B.2,Phases=1,Linecode=CAB202_3_1,Length=0.090459000,Units=km
new line.TR10427873 bus1=BMT6685870B.2,bus2=BMT6685891B.2,Phases=1,Linecode=CAB202_3_1,Length=0.070239000,Units=km
new line.TR10427880 bus1=BMT6685891B.2,bus2=BMT6685905B.2,Phases=1,Linecode=CAB202_3_1,Length=0.069257000,Units=km
new line.TR10427887 bus1=BMT6685905B.2,bus2=BMT6685919B.2,Phases=1,Linecode=CAB202_3_1,Length=0.070239000,Units=km
new line.TR10427894 bus1=BMT6685919B.2,bus2=BMT136015973.2,Phases=1,Linecode=CAB202_3_1,Length=0.093778000,Units=km
new line.TR10427901 bus1=BMT136015973.2,bus2=BMT6685989B.2,Phases=1,Linecode=CAB202_3_1,Length=0.201768000,Units=km
new line.TR10427915 bus1=BMT6685989B.2,bus2=BMT6685702B.2,Phases=1,Linecode=CAB202_3_1,Length=0.276035000,Units=km
new line.TR10427922 bus1=BMT6685702B.2,bus2=BMT6686024B.2,Phases=1,Linecode=CAB202_3_1,Length=0.087690000,Units=km
new line.TR10427929 bus1=BMT6686024B.2,bus2=BMT6686052B.2,Phases=1,Linecode=CAB202_3_1,Length=0.026637000,Units=km
new line.TR10427936 bus1=BMT6686052B.2,bus2=BMT6686059B.2,Phases=1,Linecode=CAB202_3_1,Length=0.026637000,Units=km
new line.TR10427943 bus1=BMT6686059B.2,bus2=BMT136015980.2,Phases=1,Linecode=CAB202_3_1,Length=0.232828000,Units=km
new line.TR10848888 bus1=BMT171459511.2,bus2=BMT171459525.2,Phases=1,Linecode=CAB202_3_1,Length=0.089476000,Units=km
new line.TR10889474 bus1=BMT165757465.1.2.3,bus2=BMT1459272B.1.2.3,Phases=3,Linecode=CABA06_3_3,Length=0.035070000,Units=km
new line.TR10889481 bus1=BMT1459272B.1.2.3,bus2=BMT1459279B.1.2.3,Phases=3,Linecode=CABA06_3_3,Length=0.046288000,Units=km
new line.TR10889502 bus1=BMT1459279B.1.2.3,bus2=BMT165757466.1.2.3,Phases=3,Linecode=CABA06_3_3,Length=0.025010000,Units=km
new line.TR11334877 bus1=BMT136020523.3,bus2=BMT7539079B.3,Phases=1,Linecode=CAB202_3_1,Length=0.038964000,Units=km
new line.TR11334884 bus1=BMT7539079B.3,bus2=BMT7539086B.3,Phases=1,Linecode=CAB202_3_1,Length=0.090279000,Units=km
new line.TR11334891 bus1=BMT7539086B.3,bus2=BMT7539093B.3,Phases=1,Linecode=CAB202_3_1,Length=0.091255000,Units=km
new line.TR11334898 bus1=BMT7539093B.3,bus2=BMT7539100B.3,Phases=1,Linecode=CAB202_3_1,Length=0.094185000,Units=km
new line.TR11334905 bus1=BMT7539100B.3,bus2=BMT7539107B.3,Phases=1,Linecode=CAB202_3_1,Length=0.090063000,Units=km
new line.TR11334912 bus1=BMT7539107B.3,bus2=BMT136020530.3,Phases=1,Linecode=CAB202_3_1,Length=0.101242000,Units=km
new line.TR11339525 bus1=BMT172320309.1,bus2=BMT7541585B.1,Phases=1,Linecode=CAB203_3_1,Length=0.062314000,Units=km
new line.TR11339539 bus1=BMT7541585B.1,bus2=BMT7541592B.1,Phases=1,Linecode=CAB203_3_1,Length=0.064469000,Units=km
new line.TR11339546 bus1=BMT7541592B.1,bus2=BMT172320311.1,Phases=1,Linecode=CAB203_3_1,Length=0.060900000,Units=km
new line.TR11349115 bus1=BMT161912260.2,bus2=BMT161912261.2,Phases=1,Linecode=CAB103_3_1,Length=0.023096000,Units=km
new line.TR11349122 bus1=BMT161912261.2,bus2=BMT161912262.2,Phases=1,Linecode=CAB202_3_1,Length=0.148682000,Units=km
new line.TR11349129 bus1=BMT161912262.2,bus2=BMT161912263.2,Phases=1,Linecode=CAB103_3_1,Length=0.069488000,Units=km
new line.TR10608690 bus1=BMT6871650B.1,bus2=BMT6871657B.1,Phases=1,Linecode=CAB202_3_1,Length=0.105475000,Units=km
new line.TR10608697 bus1=BMT6871657B.1,bus2=BMT156559214.1,Phases=1,Linecode=CAB202_3_1,Length=0.106546000,Units=km
new line.TR10608704 bus1=BMT156559214.1,bus2=BMT6871671B.1,Phases=1,Linecode=CAB202_3_1,Length=0.107416000,Units=km
new line.TR10608711 bus1=BMT6871671B.1,bus2=BMT6871678B.1,Phases=1,Linecode=CAB202_3_1,Length=0.095836000,Units=km
new line.TR10608718 bus1=BMT6871678B.1,bus2=BMT6871685B.1,Phases=1,Linecode=CAB202_3_1,Length=0.093778000,Units=km
new line.TR10608725 bus1=BMT6871685B.1,bus2=BMT156559216.1,Phases=1,Linecode=CAB202_3_1,Length=0.111166000,Units=km
new line.TR10608732 bus1=BMT156559213.1,bus2=BMT6871699B.1,Phases=1,Linecode=CAB202_3_1,Length=0.024092000,Units=km
new line.TR10608739 bus1=BMT6871699B.1,bus2=BMT6871706B.1,Phases=1,Linecode=CAB202_3_1,Length=0.154512000,Units=km
new line.TR10608746 bus1=BMT6871706B.1,bus2=BMT6871713B.1,Phases=1,Linecode=CAB202_3_1,Length=0.088394000,Units=km
new line.TR10608753 bus1=BMT6871713B.1,bus2=BMT156559215.1,Phases=1,Linecode=CAB202_3_1,Length=0.114080000,Units=km
new line.TR10608760 bus1=BMT156559214.1,bus2=BMT156559217.1,Phases=1,Linecode=CAB103_3_1,Length=0.073402000,Units=km
new line.TR10895319 bus1=BMT160754776.2,bus2=BMT160754777.2,Phases=1,Linecode=CAB202_3_1,Length=0.133894000,Units=km
new line.TR10895326 bus1=BMT160754777.2,bus2=BMT7141556B.2,Phases=1,Linecode=CAB202_3_1,Length=0.138894000,Units=km
new line.TR10895340 bus1=BMT7141556B.2,bus2=BMT7141591B.2,Phases=1,Linecode=CAB202_3_1,Length=0.089979000,Units=km
new line.TR10895347 bus1=BMT7141591B.2,bus2=BMT160754778.2,Phases=1,Linecode=CAB202_3_1,Length=0.088848000,Units=km
new line.TR10895809 bus1=BMT160754778.2,bus2=BMT160754780.2,Phases=1,Linecode=CAB103_3_1,Length=0.070830000,Units=km
new line.TR10895816 bus1=BMT160754780.2,bus2=BMT160754781.2,Phases=1,Linecode=CABA06_3_1,Length=0.050019000,Units=km
new line.TR10895823 bus1=BMT160754781.2,bus2=BMT7141801B.2,Phases=1,Linecode=CABA06_3_1,Length=0.053621000,Units=km
new line.TR10895830 bus1=BMT7141801B.2,bus2=BMT160754782.2,Phases=1,Linecode=CABA06_3_1,Length=0.053621000,Units=km
new line.TR10895837 bus1=BMT160754781.2,bus2=BMT7141738B.2,Phases=1,Linecode=CABA06_3_1,Length=0.048619000,Units=km
new line.TR10895844 bus1=BMT7141738B.2,bus2=BMT7141745B.2,Phases=1,Linecode=CABA06_3_1,Length=0.048619000,Units=km
new line.TR10895851 bus1=BMT7141745B.2,bus2=BMT160754783.2,Phases=1,Linecode=CABA06_3_1,Length=0.048619000,Units=km
new line.TR10926476 bus1=BMT160844869.1,bus2=BMT7168618B.1,Phases=1,Linecode=CAB202_3_1,Length=0.052261000,Units=km
new line.TR10926483 bus1=BMT7168618B.1,bus2=BMT7168653B.1,Phases=1,Linecode=CAB202_3_1,Length=0.058845000,Units=km
new line.TR10926490 bus1=BMT7168653B.1,bus2=BMT7168632B.1,Phases=1,Linecode=CAB202_3_1,Length=0.294224000,Units=km
new line.TR10926497 bus1=BMT7168632B.1,bus2=BMT160844870.1,Phases=1,Linecode=CAB202_3_1,Length=0.140216000,Units=km
new line.TR10926511 bus1=BMT161250781.1,bus2=BMT161250787.1,Phases=1,Linecode=CAB202_3_1,Length=0.098068000,Units=km
new line.TR10926532 bus1=BMT161250787.1,bus2=BMT7168702B.1,Phases=1,Linecode=CAB202_3_1,Length=0.080684000,Units=km
new line.TR10926546 bus1=BMT7168702B.1,bus2=BMT161250789.1,Phases=1,Linecode=CAB202_3_1,Length=0.078132000,Units=km
new line.TR10926644 bus1=BMT168799769.1,bus2=BMT7168849B.1,Phases=1,Linecode=CAB202_3_1,Length=0.111709000,Units=km
new line.TR10926651 bus1=BMT7168849B.1,bus2=BMT168799771.1,Phases=1,Linecode=CAB202_3_1,Length=0.178249000,Units=km
new line.TR10928758 bus1=BMT136028657.1,bus2=BMT136028671.1,Phases=1,Linecode=CAB202_3_1,Length=0.086682000,Units=km
...
