2024_89_CemigReconfigurationCases/1_SEsCemig/LPTU01/LPTU01Transformadores.dss
new transformer.104275 Phases=1,Windings=3,Buses=[BMT168799789.1 BBT499243.1.0 BBT499243.0.2],Conns=[wye wye wye],kvs=[7.967 0.12 0.12],kvas=[5.000000000 5.000000000 5.000000000],Taps=[1,1.000000000,1.000000000],%loadloss=1.900000000,%noloadloss=0.600000000
new transformer.104289 Phases=1,Windings=3,Buses=[BMT168799795.1 BBT499271.1.0 BBT499271.0.2],Conns=[wye wye wye],kvs=[7.967 0.12 0.12],kvas=[15.000000000 15.000000000 15.000000000],Taps=[1,1.000000000,1.000000000],%loadloss=1.600000000,%noloadloss=0.400000000
new transformer.104303 Phases=1,Windings=3,Buses=[BMT168799786.1 BBT499299.1.0 BBT499299.0.2],Conns=[wye wye wye],kvs=[7.967 0.12 0.12],kvas=[15.000000000 15.000000000 15.000000000],Taps=[1,1.000000000,1.000000000],%loadloss=1.600000000,%noloadloss=0.400000000
new transformer.104324 Phases=1,Windings=3,Buses=[BMT168799780.1 BBT499341.1.0 BBT499341.0.2],Conns=[wye wye wye],kvs=[7.967 0.12 0.12],kvas=[10.000000000 10.000000000 10.000000000],Taps=[1,1.000000000,1.000000000],%loadloss=1.800000000,%noloadloss=0.450000000
new transformer.104338 Phases=1,Windings=3,Buses=[BMT160844814.1 BBT499369.1.0 BBT499369.0.2],Conns=[wye wye wye],kvs=[7.967 0.12 0.12],kvas=[10.000000000 10.000000000 10.000000000],Taps=[1,1.000000000,1.000000000],%loadloss=1.800000000,%noloadloss=0.450000000
new transformer.104359 Phases=1,Windings=3,Buses=[BMT160844820.1 BBT499411.1.0 BBT499411.0.2],Conns=[wye wye wye],kvs=[7.967 0.12 0.12],kvas=[15.000000000 15.000000000 15.000000000],Taps=[1,1.000000000,1.000000000],%loadloss=1.600000000,%noloadloss=0.400000000
new transformer.104373 Phases=1,Windings=3,Buses=[BMT160844809.1 BBT499558.1.0 BBT499558.0.2],Conns=[wye wye wye],kvs=[7.967 0.12 0.12],kvas=[15.000000000 15.000000000 15.000000000],Taps=[1,1.000000000,1.000000000],%loadloss=1.600000000,%noloadloss=0.400000000
new transformer.104387 Phases=1,Windings=3,Buses=[BMT160844810.1 BBT499628.1.0 BBT499628.0.2],Conns=[wye wye wye],kvs=[7.967 0.12 0.12],kvas=[5.000000000 5.000000000 5.000000000],Taps=[1,1.000000000,1.000000000],%loadloss=1.900000000,%noloadloss=0.600000000
new transformer.104415 Phases=1,Windings=3,Buses=[BMT172360766.1 BBT499880.1.0 BBT499880.0.2],Conns=[wye wye wye],kvs=[7.967 0.12 0.12],kvas=[15.000000000 15.000000000 15.000000000],Taps=[1,1.000000000,1.000000000],%loadloss=1.600000000,%noloadloss=0.400000000
new transformer.1094613 Phases=1,Windings=3,Buses=[BMT169057195.3 BBT21916799.1.0 BBT21916799.0.2],Conns=[wye wye wye],kvs=[7.967 0.12 0.12],kvas=[10.000000000 10.000000000 10.000000000],Taps=[1,1.000000000,1.000000000],%loadloss=1.800000000,%noloadloss=0.450000000
new transformer.1133183 Phases=3,Windings=2,Buses=[BMT171780199.1.2.3 BBT30038346.1.2.3.0],Conns=[delta wye],kvs=[13.8 0.22],kvas=[45.000000000 45.000000000],Taps=[1,1.000000000],%loadloss=1.522000000,%noloadloss=0.377777000
new transformer.1133764 Phases=1,Windings=3,Buses=[BMT136022371.3 BBT30166152.1.0 BBT30166152.0.2],Conns=[wye wye wye],kvs=[7.967 0.12 0.12],kvas=[10.000000000 10.000000000 10.000000000],Taps=[1,1.000000000,1.000000000],%loadloss=1.800000000,%noloadloss=0.450000000
new transformer.1191850 Phases=1,Windings=3,Buses=[BMT166356595.3 BBT40390002.1.0 BBT40390002.0.2],Conns=[wye wye wye],kvs=[7.967 0.12 0.12],kvas=[10.000000000 10.000000000 10.000000000],Taps=[1,1.000000000,1.000000000],%loadloss=1.800000000,%noloadloss=0.450000000
new transformer.1191927 Phases=1,Windings=3,Buses=[BMT172837041.3 BBT40422195.1.0 BBT40422195.0.2],Conns=[wye wye wye],kvs=[7.967 0.12 0.12],kvas=[15.000000000 15.000000000 15.000000000],Taps=[1,1.000000000,1.000000000],%loadloss=1.600000000,%noloadloss=0.400000000
new transformer.1192039 Phases=1,Windings=3,Buses=[BMT98730081.3 BBT40442824.1.0 BBT40442824.0.2],Conns=[wye wye wye],kvs=[7.967 0.12 0.12],kvas=[5.000000000 5.000000000 5.000000000],Taps=[1,1.000000000,1.000000000],%loadloss=1.900000000,%noloadloss=0.600000000
new transformer.1192081 Phases=1,Windings=3,Buses=[BMT172707422.1 BBT40443965.1.0 BBT40443965.0.2],Conns=[wye wye wye],kvs=[7.967 0.12 0.12],kvas=[15.000000000 15.000000000 15.000000000],Taps=[1,1.000000000,1.000000000],%loadloss=1.600000000,%noloadloss=0.400000000
new transformer.1192102 Phases=1,Windings=3,Buses=[BMT98730088.3 BBT40445729.1.0 BBT40445729.0.2],Conns=[wye wye wye],kvs=[7.967 0.12 0.12],kvas=[5.000000000 5.000000000 5.000000000],Taps=[1,1.000000000,1.000000000],%loadloss=1.900000000,%noloadloss=0.600000000
new transformer.1192179 Phases=1,Windings=3,Buses=[BMT163546178.2 BBT40460121.1.0 BBT40460121.0.2],Conns=[wye wye wye],kvs=[7.967 0.12 0.12],kvas=[10.000000000 10.000000000 10.000000000],Taps=[1,1.000000000,1.000000000],%loadloss=1.800000000,%noloadloss=0.450000000
new transformer.1192501 Phases=1,Windings=3,Buses=[BMT134723976.2 BBT40549987.1.0 BBT40549987.0.2],Conns=[wye wye wye],kvs=[7.967 0.12 0.12],kvas=[5.000000000 5.000000000 5.000000000],Taps=[1,1.000000000,1.000000000],%loadloss=1.900000000,%noloadloss=0.600000000
...